Circuit: * D:\dokumenty\hobby\elektronika\projects\8bit_computer\ltspice\debouncing_circuit_timer555_monostable\debouncing_circuit_timer555_monostable.asc

WARNING: Specified period is not longer than the sum of Trise, Tfall, and Ton for v2.  Increasing period to 0.02
Limiting rise time of source v2 to 4.16334e-018
Direct Newton iteration failed to find .op point.  (Use ".option noopiter" to skip.)
Starting Gmin stepping
Gmin = 10
Gmin = 1.07374
Gmin = 0.115292
Gmin = 0.0123794
Gmin = 0.00132923
Gmin = 0.000142725
Gmin = 1.5325e-005
Gmin = 1.6455e-006
Gmin = 1.76685e-007
Gmin = 1.89714e-008
Gmin = 2.03704e-009
Gmin = 2.18725e-010
Gmin = 2.34854e-011
Gmin = 2.52173e-012
Gmin = 2.70769e-013
Gmin = 0
Gmin stepping succeeded in finding the operating point.


Date: Mon Aug 07 00:08:18 2023
Total elapsed time: 0.318 seconds.

tnom = 27
temp = 27
method = modified trap
totiter = 5565
traniter = 5073
tranpoints = 1717
accept = 1543
rejected = 174
matrix size = 27
fillins = 5
solver = Normal
Thread vector: 18.5/13.3[2] 5.9/4.4[2] 3.0/2.8[1] 0.3/1.7[1]  2592/500
Matrix Compiler1: 1.68 KB object code size  1.1/0.5/[0.3]
Matrix Compiler2: off  [0.4]/0.5/0.7

